OPT_V8/My_Campus_24/powerflow_results_t11.txt
Pandapower Network Debug Info
==================================================

BUS:
       vm_pu  va_degree      p_mw    q_mvar
0   0.998809   0.431331 -0.001995  0.000837
1   0.997906   0.699084 -0.002048  0.002137
2   0.996202   0.914865 -0.000845  0.003480
3   0.997354   0.651920 -0.001441  0.004621
4   0.994697   0.468645 -0.000297  0.005077
5   0.997482   0.330446  0.000270  0.004956
6   0.998451   0.458695 -0.001934  0.001052
7   0.999318   0.120271 -0.000955  0.002235
8   0.999196   0.096257 -0.001862  0.002512
9   0.999922   0.002394  0.007594  0.010781
10  0.999912   0.002580  0.005437  0.008840
11  0.999905   0.002716  0.006665  0.010029
12  0.999849   0.004796  0.007926  0.005166
13  0.999826   0.005290  0.008662  0.010612
14  0.999834   0.005182  0.006941  0.013218
15  0.999955   0.001760  0.000000  0.000000
16  0.999955   0.001767  0.000000  0.000000
17  0.999853   0.004816  0.000000  0.000000
18  0.999853   0.004825  0.000000  0.000000
19  1.000000   0.000000 -0.013518 -0.045827
20  1.000000   0.000006  0.000000  0.000000
21  1.000000   0.000000 -0.018859 -0.049897
22  1.000000   0.000007  0.000000  0.000000
--------------------------------------------------

LINE:
    p_from_mw  q_from_mvar   p_to_mw  q_to_mvar         pl_mw       ql_mvar  i_from_ka   i_to_ka      i_ka  vm_from_pu  va_from_degree  vm_to_pu  va_to_degree  loading_percent
0    0.013508     0.041827 -0.013506  -0.041825  1.889686e-06  1.473419e-06   0.001692  0.001692  0.001692    1.000000        0.000006  0.999955      0.001760         0.735556
1    0.018849     0.045897 -0.018843  -0.045891  6.621891e-06  5.163198e-06   0.001910  0.001910  0.001910    1.000000        0.000007  0.999853      0.004816         0.830321
2    0.019698     0.029652 -0.019697  -0.029651  9.799974e-07  7.641201e-07   0.001370  0.001370  0.001370    0.999955        0.001760  0.999922      0.002394         0.595750
3    0.007926     0.005166 -0.007926  -0.005166  3.096535e-08  2.414419e-08   0.000364  0.000364  0.000364    0.999853        0.004816  0.999849      0.004796         0.158355
4    0.015603     0.023830 -0.015603  -0.023830  4.437650e-07  3.460109e-07   0.001097  0.001097  0.001097    0.999853        0.004816  0.999834      0.005182         0.476744
5   -0.006202     0.011174  0.006278  -0.011114  7.639362e-05  5.956537e-05   0.018447  0.018447  0.018447    0.999955        0.001767  0.998809      0.431331         8.020231
6   -0.001630     0.006035  0.001660  -0.006012  3.032711e-05  2.364655e-05   0.009024  0.009024  0.009024    0.999853        0.004825  0.997482      0.330446         3.923623
7   -0.000951     0.002238  0.000955  -0.002235  3.997166e-06  3.116656e-06   0.003511  0.003511  0.003511    0.999853        0.004825  0.999318      0.120271         1.526443
8   -0.002116     0.007622  0.002127  -0.007614  1.076255e-05  8.391738e-06   0.011420  0.011420  0.011420    0.999853        0.004825  0.999196      0.096257         4.965053
9   -0.012102    -0.018869  0.012102   0.018869  1.738073e-07  1.355204e-07   0.000863  0.000863  0.000863    0.999912        0.002580  0.999922      0.002394         0.375170
10  -0.006665    -0.010029  0.006665   0.010029  7.092953e-08  5.530492e-08   0.000464  0.000464  0.000464    0.999905        0.002716  0.999912      0.002580         0.201535
11   0.008662     0.010612 -0.008662  -0.010612  9.180156e-08  7.157919e-08   0.000527  0.000527  0.000527    0.999834        0.005182  0.999826      0.005290         0.229277
12   0.002882    -0.005626 -0.002858   0.005644  2.373809e-05  1.850898e-05   0.009143  0.009143  0.009143    0.997906        0.699084  0.998809      0.431331         3.975129
13   0.001441    -0.004621 -0.001425   0.004633  1.572411e-05  1.226034e-05   0.007004  0.007004  0.007004    0.997354        0.651920  0.998809      0.431331         3.045432
14   0.000845    -0.003480 -0.000833   0.003489  1.168877e-05  9.113924e-06   0.005188  0.005188  0.005188    0.996202        0.914865  0.997906      0.699084         2.255844
15  -0.000266     0.005102  0.000297  -0.005077  3.180781e-05  2.480107e-05   0.007380  0.007380  0.007380    0.999196        0.096257  0.994697      0.468645         3.208611
16   0.001934    -0.001052 -0.001930   0.001055  4.235101e-06  3.302178e-06   0.003183  0.003183  0.003183    0.998451        0.458695  0.997482      0.330446         1.384104
--------------------------------------------------

TRAFO:
    p_hv_mw  q_hv_mvar   p_lv_mw  q_lv_mvar    pl_mw  ql_mvar   i_hv_ka   i_lv_ka  vm_hv_pu  va_hv_degree  vm_lv_pu  va_lv_degree  loading_percent
0 -0.006192   0.012174  0.006202  -0.011174  0.00001    0.001  0.000526  0.018447  0.999955      0.001760  0.999955      0.001767         0.136585
1 -0.004687   0.016895  0.004697  -0.015896  0.00001    0.001  0.000675  0.023928  0.999853      0.004816  0.999853      0.004825         0.175361
2  0.013518   0.045827 -0.013508  -0.041827  0.00001    0.004  0.000394  0.001692  1.000000      0.000000  1.000000      0.000006         0.119447
3  0.018859   0.049897 -0.018849  -0.045897  0.00001    0.004  0.000440  0.001910  1.000000      0.000000  1.000000      0.000007         0.133354
--------------------------------------------------
